Circuit: * C:\Users\91961\Desktop\Electronics-Circuit-Simulation\Cascaded First Order Active Filter.asc

Direct Newton iteration for .op point succeeded.

Date: Fri May  8 12:26:30 2020
Total elapsed time: 0.072 seconds.

tnom = 27
temp = 27
method = trap
totiter = 3
traniter = 0
tranpoints = 0
accept = 0
rejected = 0
matrix size = 17
fillins = 4
solver = Normal
Matrix Compiler1:      50 opcodes
Matrix Compiler2: 1.43 KB object code size
