Circuit: * C:\Users\91961\Desktop\Electronics Simulations\Cascaded First Order Passive Filter.asc


Date: Wed Apr 22 11:30:23 2020
Total elapsed time: 0.091 seconds.

tnom = 27
temp = 27
method = trap
totiter = 0
traniter = 0
tranpoints = 0
accept = 0
rejected = 0
matrix size = 4
fillins = 0
solver = Normal

