Circuit: * C:\Users\91961\Desktop\Electronics-Circuit-Simulation\Draft1.asc

.OP point found by inspection.

Date: Thu May 14 16:44:22 2020
Total elapsed time: 0.081 seconds.

tnom = 27
temp = 27
method = modified trap
totiter = 2082
traniter = 2082
tranpoints = 1042
accept = 1042
rejected = 0
matrix size = 3
fillins = 0
solver = Normal
Matrix Compiler1: 50 bytes object code size  0.1/0.0/[0.0]
Matrix Compiler2: 175 bytes object code size  0.1/0.1/[0.1]

