Circuit: * C:\Users\91961\Desktop\Electronics-Circuit-Simulation\Draft3.asc

.OP point found by inspection.

Date: Wed May 13 22:03:47 2020
Total elapsed time: 0.309 seconds.

tnom = 27
temp = 27
method = trap
totiter = 0
traniter = 0
tranpoints = 0
accept = 0
rejected = 0
matrix size = 4
fillins = 0
solver = Normal

