Circuit: * C:\Users\91961\Desktop\Electronics Simulations\First Order Low pass Passive Filter.asc


Date: Tue Apr 21 17:13:08 2020
Total elapsed time: 0.051 seconds.

tnom = 27
temp = 27
method = trap
totiter = 0
traniter = 0
tranpoints = 0
accept = 0
rejected = 0
matrix size = 3
fillins = 0
solver = Normal

