Circuit: * C:\Users\91961\Desktop\Electronics Simulations\First Order High pass Active Filter.asc

Direct Newton iteration for .op point succeeded.

Date: Tue Apr 21 18:05:28 2020
Total elapsed time: 0.091 seconds.

tnom = 27
temp = 27
method = trap
totiter = 3
traniter = 0
tranpoints = 0
accept = 0
rejected = 0
matrix size = 10
fillins = 1
solver = Normal
Matrix Compiler1:      25 opcodes
Matrix Compiler2: 802 bytes object code size
