Circuit: * C:\Users\91961\Desktop\Electronics Simulations\First Order Low pass Active Filter.asc

Direct Newton iteration for .op point succeeded.

Date: Tue Apr 21 17:07:51 2020
Total elapsed time: 0.068 seconds.

tnom = 27
temp = 27
method = trap
totiter = 3
traniter = 0
tranpoints = 0
accept = 0
rejected = 0
matrix size = 9
fillins = 1
solver = Normal
Matrix Compiler1:      22 opcodes
Matrix Compiler2: 729 bytes object code size
