Circuit: * C:\Users\91961\Desktop\Electronics-Circuit-Simulation\Full Wave Rectifier.asc

.OP point found by inspection.

Date: Thu May 14 11:58:02 2020
Total elapsed time: 0.257 seconds.

tnom = 27
temp = 27
method = modified trap
totiter = 2590
traniter = 2590
tranpoints = 1093
accept = 1085
rejected = 8
matrix size = 4
fillins = 0
solver = Normal
Matrix Compiler1:       7 opcodes  0.1/[0.0]/0.1
Matrix Compiler2: off  [0.1]/0.1/0.1

