Circuit: * C:\Users\91961\Desktop\Electronics-Circuit-Simulation\Half Wave Rectifier.asc

.OP point found by inspection.

Date: Thu May 14 12:03:27 2020
Total elapsed time: 0.205 seconds.

tnom = 27
temp = 27
method = modified trap
totiter = 2149
traniter = 2149
tranpoints = 1044
accept = 1044
rejected = 0
matrix size = 3
fillins = 0
solver = Normal
Matrix Compiler1:       5 opcodes  0.2/[0.1]/0.2
Matrix Compiler2: off  [0.1]/0.2/0.2

