Circuit: * C:\Users\91961\Desktop\Electronics-Circuit-Simulation\Second Order Low Pass Active Filter.asc

Direct Newton iteration for .op point succeeded.

Date: Fri May  8 13:49:21 2020
Total elapsed time: 0.154 seconds.

tnom = 27
temp = 27
method = trap
totiter = 3
traniter = 0
tranpoints = 0
accept = 0
rejected = 0
matrix size = 11
fillins = 3
solver = Normal
Matrix Compiler1:      31 opcodes
Matrix Compiler2: 1015 bytes object code size
