Circuit: * C:\Users\91961\Desktop\Electronics-Circuit-Simulation\Second Order High Pass Active Filter.asc

Direct Newton iteration for .op point succeeded.

Date: Fri May  8 14:04:08 2020
Total elapsed time: 0.131 seconds.

tnom = 27
temp = 27
method = trap
totiter = 3
traniter = 0
tranpoints = 0
accept = 0
rejected = 0
matrix size = 11
fillins = 3
solver = Normal
Matrix Compiler1:      32 opcodes
Matrix Compiler2: 1009 bytes object code size
